<nodes>

    <node id="n0" x="0" y="0" type="traffic_light"/>
    <node id="n1" x="-1000" y="0"/>
    <node id="n2" x="0" y="1000"/>
    <node id="n3" x="1000" y="0"/>
    <node id="n4" x="0" y="-1000"/>

</nodes>