<configuration>

        <input>
                <net-file value="network.net.xml"/>
                <route-files value="route.rou.xml"/>
                <additional-files value="tls.add.xml"/>
        </input>

        <time>
                <begin value="0"/>
                <end value="2000"/>
        </time>

        <processing>
                <time-to-teleport value="-1"/>
        </processing>

</configuration>